%nprocshared=16
%mem=16GB
%chk=ferro_gauche.chk
# opt b3lyp/aug-cc-pvdz

Title Card Required

0 1
 C                 -2.43312101    0.75340609    0.85525779
 C                 -2.40300524    0.70149480   -0.65275141
 H                 -1.84503255    1.42462915   -1.24326217
 C                 -3.15334203   -0.34596054   -1.08593138
 H                 -3.33748974   -0.65940490   -2.11250911
 C                 -3.31128864   -0.42035481    1.21411173
 H                 -3.54287647   -0.67252129    2.24645310
 C                 -3.71985190   -1.04563921    0.07838856
 H                 -4.35994506   -1.92219936   -0.01094251
 C                  0.22010861   -1.54365065   -0.47064123
 C                 -0.29066219   -2.25774231   -1.69819155
 H                 -0.04958984   -1.91993506   -2.70354232
 C                 -1.05037514   -3.32034111   -1.32198297
 H                 -1.56339326   -4.03739251   -1.96125544
 C                 -0.36170003   -2.35880223    0.65838303
 H                 -0.18236885   -2.10892131    1.70162290
 C                 -1.09471103   -3.38337290    0.14777412
 H                 -1.64335360   -4.15107451    0.69154114
 Fe                -1.74253301   -1.33965089   -0.20517941
 H                 -1.95097143    1.45024683    1.50859135
 H                  0.84225635   -0.67311955   -0.46785079

